FoamFile
{
    version     2.0;
    format      ascii;
    class       dictionary;
    location    "system";
    object      decomposeParDict;
}

numberOfSubdomains  8;

method  scotch;
// scotch is best for snappyHexMesh cases — automatically balances
// unstructured meshes without needing manual coefficients
